91
test
Pd     -3.319678    5.895410    2.733952
Cl     -5.406839    6.545980    3.680709
P      -1.577547    8.771412    1.980287
P      -1.375107    5.199810    1.924826
O      -2.563570    7.922177    2.706855
O      -2.743687    4.667969   -0.588174
N      -0.593480    9.686543    2.934109
O       1.598581    4.450415    1.901168
N      -2.415202    9.867096    1.055642
C      -0.513379    7.776269    0.894397
C      -0.494186    6.364146    0.796122
C      -4.857986    9.572006    1.566306
H      -4.749779    8.829291    2.163993
H      -4.795511   10.393015    2.060940
H      -5.717363    9.519276    1.141135
C       1.146166    4.599645    3.168640
C       0.829729    9.438077    3.334463
H       0.916885    9.833436    4.218714
C      -2.665168   12.341053    1.027463
H      -3.533432   12.312162    0.618206
H      -2.760472   12.314961    1.982318
H      -2.218809   13.151671    0.772826
C       1.150835    7.913651   -0.883750
H       1.720372    8.429617   -1.407610
C      -1.339818   10.537765    3.909411
H      -2.179289   10.652621    3.580285
C      -1.411975    3.616833    1.025852
C       0.312352    5.779235   -0.190258
H       0.292936    4.855747   -0.298822
C      -1.843647   11.138601    0.564827
H      -0.974303   11.225568    0.943651
C       0.304644    8.513500    0.031160
H       0.278389    9.442220    0.074077
C       1.207716    7.982151    3.514349
H       0.518346    7.531214    4.007518
H       1.309213    7.569218    2.653646
H       2.036224    7.924002    3.996406
C      -0.833301    2.465807    1.550767
H      -0.320356    2.522912    2.324414
C      -1.684843   11.175202   -0.962225
H      -1.186585   10.407031   -1.250806
H      -2.552493   11.165896   -1.374243
H      -1.217808   11.973887   -1.215880
C      -3.763989    9.533163    0.506729
H      -3.979423   10.240432   -0.133040
C      -1.475454    9.859082    5.270176
H      -1.878715    8.994851    5.158817
H      -0.605285    9.756895    5.664916
H      -2.026096   10.397956    5.842968
C       1.957865    4.447621    4.294765
H       2.861664    4.253065    4.195312
C      -1.771515    1.143885   -0.212178
H      -1.888556    0.317743   -0.623203
C      -2.194564    3.504531   -0.135629
C       1.138712    6.535547   -1.009358
H       1.681377    6.118505   -1.639013
C      -0.219929    4.901190    3.313033
C      -0.709687   11.922983    4.040766
H       0.150068   11.844720    4.459415
H      -0.607635   12.311150    3.169394
H      -1.277232   12.483808    4.575237
C      -3.747541    8.226502   -0.291575
H      -3.058088    8.267285   -0.958434
H      -3.575620    7.492027    0.300692
H      -4.598643    8.101858   -0.718280
C       0.076033    4.875357    5.729788
H      -0.283616    4.965628    6.582779
C      -2.364865    2.268573   -0.762036
H      -2.870678    2.200948   -1.539544
C      -0.729814    5.027850    4.604407
H      -1.632682    5.219614    4.717173
C       1.832105   10.187695    2.465782
H       1.920342    9.740785    1.620630
H       1.523960   11.085569    2.323040
H       2.684789   10.207988    2.906347
C      -3.724043    4.564855   -1.622099
H      -3.325084    4.176585   -2.404076
H      -4.447628    4.010270   -1.322938
H      -4.058502    5.439490   -1.833609
C       1.412248    4.587869    5.560624
H       1.956791    4.486181    6.307503
C      -1.010503    1.229506    0.935390
H      -0.618483    0.466647    1.295273
C       3.001029    4.312708    1.682999
H       3.461826    5.051903    2.086746
H       3.306872    3.491996    2.075217
H       3.177930    4.302002    0.739502
C      -3.891578    3.947462    2.865280
H      -3.176101    3.428870    3.241113
H      -4.666753    3.877753    3.426851
H      -4.101308    3.615953    1.988847
