91
test
Pd      3.695858    6.076221    1.634255
Cl      4.490567    7.280437    3.530074
P       3.951668    8.155924   -1.101402
P       3.002093    4.859424   -0.085628
O       4.295217    7.625565    0.248427
O       0.277322    5.381042    0.794471
N       5.232483    8.425584   -2.102614
O       3.183550    3.051050   -2.555816
N       3.238345    9.643184   -0.910651
C       2.797871    7.057221   -1.975200
C       2.341252    5.791681   -1.534717
C       3.323730   10.211311    1.535773
H       3.717936    9.384175    1.820399
H       4.017602   10.835404    1.308461
H       2.788358   10.572924    2.246190
C       4.374165    3.116561   -1.914272
C       5.741665    7.581095   -3.231823
H       6.701505    7.736413   -3.251529
C       3.817698   11.981202   -1.528522
H       3.302527   12.364725   -0.814578
H       4.711683   11.811566   -1.222705
H       3.843439   12.592496   -2.268005
C       1.354963    6.885850   -3.934521
H       1.063431    7.235100   -4.745728
C       6.285791    9.293935   -1.494894
H       5.888305    9.781148   -0.838500
C       1.727783    3.613754    0.288228
C       1.354267    5.143292   -2.290378
H       1.008998    4.336331   -1.982811
C       3.174076   10.668588   -1.973062
H       3.675295   10.342984   -2.714407
C       2.272131    7.576539   -3.163374
H       2.549840    8.418208   -3.445373
C       5.587835    6.085831   -3.043473
H       5.850788    5.846996   -2.151506
H       4.671220    5.838103   -3.185152
H       6.144824    5.624865   -3.675501
C       2.009731    2.251682    0.265294
H       2.833259    1.959700   -0.053222
C       1.743898   10.932803   -2.466242
H       1.335841   10.103065   -2.724410
H       1.231232   11.334331   -1.760118
H       1.770259   11.525225   -3.220365
C       2.446392    9.960979    0.315669
H       1.988413   10.805034    0.131897
C       7.393947    8.472006   -0.841354
H       7.009969    7.865700   -0.203492
H       7.861588    7.971994   -1.515710
H       8.007597    9.060090   -0.394953
C       5.520793    2.454073   -2.357530
H       5.496266    1.952108   -3.139851
C      -0.144211    1.751236    1.184961
H      -0.766725    1.127359    1.482289
C       0.482872    4.032853    0.786876
C       0.876802    5.668250   -3.482959
H       0.239191    5.204248   -3.975938
C       4.407496    3.883174   -0.735633
C       6.853980   10.280943   -2.512797
H       7.349288    9.801973   -3.180501
H       6.134393   10.759480   -2.929422
H       7.434384   10.902651   -2.066813
C       1.346978    8.925596    0.569034
H       0.811807    8.826678   -0.221862
H       1.746656    8.082625    0.791403
H       0.792651    9.219312    1.295972
C       6.752463    3.285112   -0.466524
H       7.543720    3.341079    0.019140
C      -0.458795    3.099858    1.224783
H      -1.287783    3.380342    1.539501
C       5.607451    3.945649   -0.028613
H       5.644117    4.442190    0.756729
C       5.238587    8.042277   -4.593996
H       4.326289    7.765915   -4.708591
H       5.292986    8.999134   -4.648514
H       5.779402    7.650945   -5.283892
C      -0.869645    5.859578    1.498886
H      -1.664766    5.505556    1.094091
H      -0.823675    5.577142    2.414721
H      -0.890564    6.818604    1.461216
C       6.695071    2.547350   -1.628054
H       7.456155    2.104823   -1.927414
C       1.077603    1.318904    0.712052
H       1.277074    0.410639    0.691716
C       3.126871    2.432814   -3.839558
H       3.765934    2.848225   -4.423328
H       3.330785    1.498952   -3.754328
H       2.245153    2.535853   -4.205004
C       3.241243    4.507918    2.847750
H       3.562418    3.694016    2.452142
H       3.656738    4.633518    3.703732
H       2.288994    4.455640    2.959585
