91
test
Pd     -0.221753    6.076221    4.034970
Cl      1.106644    7.280437    5.603745
P      -2.775376    8.155924    3.020936
P      -1.439217    4.859424    2.636010
O      -1.728638    7.625565    3.939850
O       0.581977    5.381042    0.607778
N      -4.248940    8.425584    3.707610
O      -3.722550    3.051050    1.676248
N      -2.281574    9.643184    2.471960
C      -3.030123    7.057221    1.596199
C      -2.430349    5.791681    1.389324
C      -0.140558   10.211311    3.658691
H      -0.065920    9.384175    4.139149
H      -0.658106   10.835404    4.173738
H       0.735482   10.572924    3.504194
C      -3.691458    3.116561    3.028348
C      -5.486237    7.581095    3.648644
H      -5.939553    7.736413    4.494921
C      -3.095122   11.981202    2.707659
H      -2.225110   12.364725    2.572762
H      -3.228498   11.811566    3.643044
H      -3.765692   12.592496    2.394876
C      -4.120824    6.885850   -0.578954
H      -4.711262    7.235100   -1.206991
C      -4.185650    9.293935    4.922013
H      -3.420343    9.781148    4.865847
C      -0.527584    3.613754    1.670319
C      -2.655566    5.143292    0.166851
H      -2.224773    4.336331   -0.001153
C      -3.199011   10.668588    1.932371
H      -4.087103   10.342984    2.042397
C      -3.850113    7.576539    0.588342
H      -4.227453    8.418208    0.707757
C      -5.248578    6.085831    3.597090
H      -4.573208    5.846996    4.236327
H      -4.958681    5.838103    2.716059
H      -6.064587    5.624865    3.806436
C      -0.676020    2.251682    1.911124
H      -1.333694    1.959700    2.500290
C      -2.989151   10.932803    0.434174
H      -3.033926   10.103065   -0.046613
H      -2.127244   11.334331    0.297959
H      -3.673047   11.525225    0.115297
C      -0.829376    9.960979    2.323062
H      -0.785200   10.805034    1.831569
C      -4.106434    8.472006    6.206088
H      -3.363772    7.865700    6.153545
H      -4.919594    7.971994    6.316608
H      -3.987279    9.060090    6.955516
C      -4.606962    2.454073    3.848766
H      -5.292880    1.952108    3.471746
C       1.121278    1.751236    0.409468
H       1.668815    1.127359   -0.010212
C       0.481892    4.032853    0.787476
C      -3.501399    5.668250   -0.799994
H      -3.651177    5.204248   -1.591917
C      -2.656415    3.883174    3.593137
C      -5.350560   10.280943    4.966155
H      -6.170354    9.801973    5.104346
H      -5.395090   10.759480    4.135855
H      -5.216683   10.902651    5.685771
C      -0.104502    8.925596    1.458502
H      -0.566233    8.826678    0.622602
H      -0.087820    8.082625    1.915571
H       0.794864    9.219312    1.294616
C      -3.481230    3.285112    5.804691
H      -3.407723    3.341079    6.730193
C       1.299578    3.099858    0.147250
H       1.956347    3.380342   -0.448504
C      -2.571224    3.945649    4.983285
H      -1.888125    4.442190    5.372493
C      -6.471549    8.042277    2.581985
H      -6.159479    7.765915    1.717096
H      -6.544822    8.999134    2.605704
H      -7.331776    7.650945    2.750648
C       1.730328    5.859578   -0.094379
H       1.730630    5.505556   -0.986610
H       2.525473    5.577142    0.362361
H       1.706261    6.818604   -0.130120
C      -4.490105    2.547350    5.226231
H      -5.102362    2.104823    5.768455
C       0.145221    1.318904    1.283416
H       0.036544    0.410639    1.451914
C      -4.840641    2.432814    1.042940
H      -5.650912    2.848225    1.347323
H      -4.857276    1.498952    1.263322
H      -4.765964    2.535853    0.091414
C       1.065870    4.507918    4.180820
H       0.567571    3.694016    4.287387
H       1.639925    4.633518    4.939637
H       1.597828    4.455640    3.383132
