91
test
Pd     -7.037725   -0.736658   -1.782803
Cl     -8.941191   -2.051981   -1.214849
P      -7.770831    0.950462   -4.696666
P      -5.248105    0.505917   -2.198940
O      -8.060521    0.258139   -3.408990
O      -3.961646   -1.896676   -3.220510
N      -8.539691    2.391791   -4.913587
O      -3.454743    2.993032   -2.254462
N      -8.309388   -0.011797   -5.938105
C      -5.990297    1.244376   -4.909352
C      -4.972921    0.981333   -3.960736
C      -9.466231   -1.991305   -4.909362
H      -9.280684   -1.757261   -3.997572
H     -10.290002   -1.580838   -5.184205
H      -9.542822   -2.945372   -4.986618
C      -4.513472    3.176888   -1.430616
C      -8.003780    3.781812   -4.745715
H      -8.765615    4.314203   -4.459410
C     -10.063707    0.170009   -7.691118
H     -10.169742   -0.780897   -7.773236
H     -10.662859    0.501880   -7.018520
H     -10.264033    0.587547   -8.531778
C      -4.296816    1.952726   -6.515791
H      -4.083768    2.311023   -7.347210
C     -10.020449    2.305435   -4.732723
H     -10.259157    1.439298   -4.870749
C      -3.656964   -0.187675   -1.648915
C      -3.638807    1.160557   -4.352644
H      -2.960466    0.940837   -3.755509
C      -8.623626    0.489475   -7.292462
H      -8.537839    1.437673   -7.272656
C      -5.614877    1.709568   -6.174463
H      -6.276731    1.860981   -6.810133
C      -6.970851    3.950368   -3.650452
H      -7.260511    3.483756   -2.862949
H      -6.130507    3.591811   -3.945214
H      -6.867215    4.883659   -3.449421
C      -2.951157    0.360898   -0.583005
H      -3.236199    1.163499   -0.209525
C      -7.659243   -0.036492   -8.365667
H      -6.754856    0.147234   -8.101175
H      -7.776524   -0.984789   -8.463856
H      -7.843269    0.397717   -9.201105
C      -8.332042   -1.499191   -5.799576
H      -8.514341   -1.852287   -6.692905
C     -10.442712    2.671011   -3.311900
H      -9.967124    2.121396   -2.684481
H     -10.238933    3.595234   -3.145341
H     -11.386718    2.527745   -3.211850
C      -4.742314    4.363124   -0.730189
H      -4.163952    5.083992   -0.832376
C      -1.401048   -1.464338   -0.620109
H      -0.647642   -1.886996   -0.275305
C      -3.216517   -1.408107   -2.188035
C      -3.299265    1.655730   -5.603771
H      -2.406340    1.787351   -5.827898
C      -5.389119    2.085935   -1.285492
C     -10.761272    3.151312   -5.766562
H     -10.592470    4.080884   -5.599309
H     -10.453126    2.922836   -6.645893
H     -11.704181    2.979947   -5.704529
C      -6.964618   -2.055120   -5.392123
H      -6.294280   -1.733645   -5.999584
H      -6.754029   -1.765877   -4.502302
H      -6.988365   -3.014618   -5.420184
C      -6.702309    3.406501    0.283140
H      -7.431645    3.479855    0.855658
C      -2.080389   -2.041252   -1.680768
H      -1.782885   -2.841025   -2.050625
C      -6.471722    2.225832   -0.418272
H      -7.055836    1.511178   -0.305398
C      -7.554365    4.409305   -6.059324
H      -6.706230    4.040200   -6.316668
H      -8.204369    4.225162   -6.741302
H      -7.468107    5.358807   -5.947144
C      -3.689099   -3.233872   -3.642831
H      -2.785283   -3.291244   -3.961002
H      -3.806711   -3.833440   -2.903019
H      -4.293282   -3.475394   -4.348676
C      -5.833991    4.462548    0.117233
H      -5.982527    5.254621    0.581187
C      -1.824409   -0.273537   -0.066807
H      -1.360214    0.102809    0.645959
C      -2.629226    4.111041   -2.573834
H      -3.172368    4.819155   -2.927849
H      -2.182564    4.415905   -1.781058
H      -1.977184    3.849980   -3.228268
C      -6.051822   -1.509869   -0.180005
H      -5.622868   -0.800228    0.304249
H      -6.675962   -1.958156    0.394978
H      -5.390207   -2.136241   -0.483224
